/*--------------------------------*- C++ -*----------------------------------*\
| =========                 |                                                 |
| \\      /  F ield         | OpenFOAM: The Open Source CFD Toolbox           |
|  \\    /   O peration     | Version:  1.5                                   |
|   \\  /    A nd           | Web:      http://www.OpenFOAM.org               |
|    \\/     M anipulation  |                                                 |
\*---------------------------------------------------------------------------*/
FoamFile
{
    version     2.0;
    format      ascii;
    class       dictionary;
    object      fvSchemes;
}
// * * * * * * * * * * * * * * * * * * * * * * * * * * * * * * * * * * * * * //

ddtSchemes
{
    default Euler;
}

gradSchemes
{
//    default	cellLimited fourth 1;
    default         Gauss linear;
    grad(U)         Gauss linear;
    grad(alpha1)     Gauss linear;
}

divSchemes
{
//    default	    Gauss linear;
    div(rho*phi,U)  Gauss SFCD;
//    div(phi,gamma)  Gauss vanLeer;
//    div(rho*phi,U)  Gauss MUSCL;
       div(phi,alpha)  Gauss vanLeer01;
    // div(phi,alpha)  Gauss upwind;
    div(phirb,alpha) Gauss interfaceCompression;
    div(phi,k)      Gauss Minmod;
    // div(phi*interpolate(rho),k)      Gauss Minmod;
    div(phi,omega) Gauss Minmod;
    // div(phi*interpolate(rho),omega)      Gauss Minmod;
    div(rho*phi,k)   Gauss Minmod;
    div(rho*phi,omega)   Gauss Minmod;
    div(rhoPhi,U)   Gauss Minmod;
}

laplacianSchemes
{
    default         Gauss linear corrected;
}

interpolationSchemes
{
    default         linear;
}

snGradSchemes
{
    default         corrected;
}

fluxRequired
{
    default         no;
    pd;
    pcorr;
    gamma;
}

// ************************************************************************* //
